pyensys/tests/matpower/Transmission_Network_UK_v3_one_gen_per_node_capacity3x_cont_24_25.m
% Simplified UK transmission network
% References
% https://ieeexplore-ieee-org.manchester.idm.oclc.org/document/5589807
function mpc = Transmission_Network_UK3


%% MATPOWER Case Format : Version 2
mpc.version = '2';

%%-----  Power Flow Data  -----%%
%% system MVA base
mpc.baseMVA = 100;

%% bus data													
%	bus_i	type	Pd	Qd	Gs	Bs	area	Vm	Va	baseKV	zone	Vmax	Vmin
mpc.bus = [													
	1	1	468	102	0	0	1	1	0	400	1	1.05	0.95
	2	1	513	113	0	0	1	1	0	400	1	1.05	0.95
	3	1	555	105	0	0	1	1	0	400	1	1.05	0.95
	4	1	1308	317	0	0	1	1	0	400	1	1.05	0.95
	5	1	502	128	0	0	1	1	0	400	1	1.05	0.95
	6	1	1176	315	0	0	1	1	0	400	1	1.05	0.95
	7	1	745	171	0	0	1	1	0	400	1	1.05	0.95
	8	1	1000	37.4	0	0	1	1	0	400	1	1.05	0.95
	9	1	130	53	0	0	1	1	0	400	1	1.05	0.95
	10	1	2561	465	0	0	1	1	0	400	1	1.05	0.95
	11	1	3360	760	0	0	1	1	0	400	1	1.05	0.95
	12	1	1189	338	0	0	1	1	0	400	1	1.05	0.95
	13	1	2524	766	0	0	1	1	0	400	1	1.05	0.95
	14	1	1831	566.5	0	0	1	1	0	400	1	1.05	0.95
	15	1	2633	694.6	0	0	1	1	0	400	1	1.05	0.95
	16	1	1607	655	0	0	1	1	0	400	1	1.05	0.95
	17	1	1081	371	0	0	1	1	0	400	1	1.05	0.95
	18	1	5362	1935	0	0	1	1	0	400	1	1.05	0.95
	19	1	2019	648	0	0	1	1	0	400	1	1.05	0.95
	20	1	1027.36	305.8	0	0	1	1	0	400	1	1.05	0.95
	21	1	702	202.2	0	0	1	1	0	400	1	1.05	0.95
	22	1	1820	665	0	0	1	1	0	400	1	1.05	0.95
	23	1	4734	1337	0	0	1	1	0	400	1	1.05	0.95
	24	1	1418	528	0	0	1	1	0	400	1	1.05	0.95
	25	1	9734	2902	0	0	1	1	0	400	1	1.05	0.95
	26	1	1424	434	0	0	1	1	0	400	1	1.05	0.95
	27	3	457	138	0	0	1	1	0	400	1	1.05	0.95
	28	1	2751	841	0	0	1	1	0	400	1	1.05	0.95
	29	1	2577	356	0	0	1	1	0	400	1	1.05	0.95
	30  1	0	0	0	0	1	1	0	400	1	1.05	0.95
	];													

%% branch data														
%	fbus	tbus	r	x	b	rateA	rateB	rateC	tap ratio	shift angle	status	angmin	angmax	%name
mpc.branch = [														
	1	2	0.0122	0.02	0.0856	1050	0	0	0	0	1	-360	360
	1	3	0.007	0.15	0.052	264	0	0	0	0	1	-360	360
	2	4	0.0004	0.065	0.4454	1520	0	0	0	0	1	-360	360
	4	6	0.0013	0.023	0.1496	3000	0	0	0	0	1	-360	360
	4	5	0.001	0.024	0.125	2000	0	0	0	0	1	-360	360
	4	7	0.0021	0.0135	0.1538	2180	0	0	0	0	1	-360	360
	5	6	0.00085	0.01051	0.38254	2780	0	0	0	0	1	-360	360
	6	9	0.00078	0.00852	0.0737	4200	0	0	0	0	1	-360	360
	7	8	0.0004	0.0001	0.728	4360	0	0	0	0	1	-360	360
	7	6	0.003	0.2	0.2939	1900	0	0	0	0	1	-360	360
	8	10	0.00083	0.0175	0.6624	6140	0	0	0	0	1	-360	360
	9	11	0.00164	0.0163	0.4868	2780	0	0	0	0	1	-360	360
	9	10	0.00352	0.02453	0.1898	1710	0	0	0	0	1	-360	360
	10	15	0.00053	0.00835	5.373	9680	0	0	0	0	1	-360	360
	11	15	0.0007	0.042	0.3907	5040	0	0	0	0	1	-360	360
	11	13	0.0004	0.0052	0.2498	4340	0	0	0	0	1	-360	360
	11	12	0.0001	0.0085	0.0798	6640	0	0	0	0	1	-360	360
	12	13	0.00096	0.01078	0.385	6200	0	0	0	0	1	-360	360
	12	18	0.00074	0.009	0.2911	4800	0	0	0	0	1	-360	360
	13	18	0.00049	0.007	0.1943	4800	0	0	0	0	1	-360	360
	13	15	0.00137	0.023	0.6643	2480	0	0	0	0	1	-360	360
	13	14	0.00107	0.01163	1.1745	2080	0	0	0	0	1	-360	360
	14	16	0.0005	0.016	0.2795	5160	0	0	0	0	1	-360	360
	15	16	0.00033	0.0052	0.3534	5540	0	0	0	0	1	-360	360
	15	14	0.00019	0.00222	0.7592	10000	0	0	0	0	1	-360	360
	16	19	0.00056	0.0141	0.4496	5560	0	0	0	0	1	-360	360
	17	16	0.001	0.01072	0.2651	4300	0	0	0	0	1	-360	360
	17	22	0.00068	0.0097	0.4566	4200	0	0	0	0	1	-360	360
	18	17	0.00042	0.0018	0.2349	6200	0	0	0	0	1	-360	360
	18	23	0.00138	0.0096	0.4829	3940	0	0	0	0	1	-360	360
	20	26	0.00035	0.0023	0.2249	5560	0	0	0	0	1	-360	360
	20	19	0.00178	0.0213	0.6682	3180	0	0	0	0	1	-360	360
	21	16	0.00145	0.01824	0.9169	5560	0	0	0	0	1	-360	360
	21	25	0.00025	0.01	0.1586	5560	0	0	0	0	1	-360	360
	21	20	0.0012	0.0048	0.4446	5560	0	0	0	0	1	-360	360
	21	19	0.00037	0.0059	0.294	6060	0	0	0	0	1	-360	360
	22	16	0.00178	0.0172	0.8403	4020	0	0	0	0	1	-360	360
	22	25	0.00037	0.0041	0.4098	6550	0	0	0	0	1	-360	360
	22	21	0.00019	0.00111	0.1232	5560	0	0	0	0	1	-360	360
	23	29	0.00151	0.0182	0.53	4020	0	0	0	0	1	-360	360
	23	24	0.00086	0.0008	0.9622	5560	0	0	0	0	1	-360	360
	23	22	0.00055	0.003	0.3468	5560	0	0	0	0	1	-360	360
	24	28	0.00068	0.007	0.2388	4420	0	0	0	0	1	-360	360
	24	25	0.00104	0.0091	0.2918	2980	0	0	0	0	0	-360	360
	25	26	0.0002	0.0057	0.532	13920	0	0	0	0	1	-360	360
	27	26	0.0002	0.00503	0.1797	6200	0	0	0	0	1	-360	360
	28	27	0.00038	0.00711	0.2998	6140	0	0	0	0	1	-360	360
	29	28	0.00051	0.00796	0.34	5560	0	0	0	0	1	-360	360
	3	4	0.003	0.041	0.0044	1296	0	0	0	0	1	-360	360
	3	2	0.03004	0.077	0.0124	1304	0	0	0	0	1	-360	360
	1	30	0.03004	0.077	0.0124	1304	0	0	0	0	1	-360	360
	];		
	
%% generator data																						
%	bus	Pg	Qg	Qmax	Qmin	Vg	mBase	status	Pmax	Pmin	Pc1	Pc2	Qc1min	Qc1max	Qc2min	Qc2max	ramp_agc	ramp_10	ramp_30	ramp_q	apf																						
mpc.gen = [																						
	1	1250.46120000000	-98.3600000000000	1714.41324630000	-1656.61457172000	1	100	1	4665.90000000000	0	0	0	0	0	0	0	0	0	0	0	0
	2	1264.23372000000	267.040000000000	3368.51606700000	-1473.08472840000	1	100	1	4717.29000000000	0	0	0	0	0	0	0	0	0	0	0	0
	3	779.526240000000	252.636400000000	828.378691200000	-705.338374920000	1	100	1	2908.68000000000	0	0	0	0	0	0	0	0	0	0	0	0
	4	2338.19280000000	597.140000000000	2819.20179477000	-2856.47414253000	1	100	1	8724.60000000000	0	0	0	0	0	0	0	0	0	0	0	0
	5	882.148800000000	-28.9000000000000	1295.58064575000	-1319.13280615800	1	100	1	3291.60000000000	0	0	0	0	0	0	0	0	0	0	0	0
	6	871.471680000000	244.840000000000	1429.65587310000	-1583.37873360000	1	100	1	3251.76000000000	0	0	0	0	0	0	0	0	0	0	0	0
	7	2047.62720000000	-111.070000000000	3082.32178800000	-2415.99307740000	1	100	1	7640.40000000000	0	0	0	0	0	0	0	0	0	0	0	0
	10	2816.41200000000	233.670000000000	4272.95402700000	-4522.06523940000	1	100	1	10509	0	0	0	0	0	0	0	0	0	0	0	0
	11	4575.82128000000	1189.27000000000	8388.75547572000	-6748.98757386000	1	100	1	17073.9600000000	0	0	0	0	0	0	0	0	0	0	0	0
	12	3353.48400000000	357.620000000000	6002.78640420000	-5824.99740423000	1	100	1	12513	0	0	0	0	0	0	0	0	0	0	0	0
	15	6271.20000000000	1243.37000000000	10605.0956490000	-7583.61500700000	1	100	1	23400	0	0	0	0	0	0	0	0	0	0	0	0
	16	9833.72400000000	3118.90000000000	18022.8502398000	-15621.1540575000	1	100	1	36693	0	0	0	0	0	0	0	0	0	0	0	0
	17	1608	356.180000000000	2442.69659850000	-1217.82478020000	1	100	1	6000	0	0	0	0	0	0	0	0	0	0	0	0
	18	1759.15200000000	-45.3300000000000	2774.97978153000	-1823.24840757000	1	100	1	6564	0	0	0	0	0	0	0	0	0	0	0	0
	19	2614.44720000000	1201.13000000000	4497.99531600000	-4895.04570900000	1	100	1	9755.40000000000	0	0	0	0	0	0	0	0	0	0	0	0
	20	1254.24000000000	304.420000000000	2573.34399180000	-860.220389700000	1	100	1	4680	0	0	0	0	0	0	0	0	0	0	0	0
	21	534.660000000000	326	978.449751900000	-918.209647800000	1	100	1	1995	0	0	0	0	0	0	0	0	0	0	0	0
	22	322.484400000000	130.030000000000	569.157013200000	-698.043009300000	1	100	1	1203.30000000000	0	0	0	0	0	0	0	0	0	0	0	0
	23	6179.55204000000	1254.40000000000	9579.12704691000	-9047.79777870000	1	100	1	23058.0300000000	0	0	0	0	0	0	0	0	0	0	0	0
	25	1706.89200000000	941	2848.13512710000	-2842.24895160000	1	100	1	6669	0	0	0	0	0	0	0	0	0	0	0	0
	26	4429.23600000000	434.930000000000	7560.24241110000	-5521.83027300000	1	100	1	16827	0	0	0	0	0	0	0	0	0	0	0	0
	27	1043.59200000000	416.220000000000	2211.09457770000	-1625.37641970000	1	100	1	3894	0	0	0	0	0	0	0	0	0	0	0	0
	28	1228.51200000000	248.310000000000	2155.85365074000	-1952.72507646000	1	100	1	4584	0	0	0	0	0	0	0	0	0	0	0	0
	29	2469.08400000000	-799.380000000000	3786.07772400000	-3913.44507870000	1	100	1	9213	0	0	0	0	0	0	0	0	0	0	0	0
	24	0	0	2848.20000000000	-2848.20000000000	1	100	1	6000	0	0	0	0	0	0	0	0	0	0	0	0
	];																						
																
										


%% generator cost data										
%	1	startup	shutdown	n	x1	y1	...	xn	yn	
%	2	startup	shutdown	n	c(n-1)	...	c0			
mpc.gencost = [										%
	2	0	0	2	35.1000000000000	0
	2	0	0	2	39.2700000000000	0
	2	0	0	2	17.8000000000000	0
	2	0	0	2	46.5900000000000	0
	2	0	0	2	19.3750000000000	0
	2	0	0	2	23.9000000000000	0
	2	0	0	2	16.1000000000000	0
	2	0	0	2	28.4500000000000	0
	2	0	0	2	31.3420000000000	0
	2	0	0	2	44.8525000000000	0
	2	0	0	2	46	0
	2	0	0	2	51.2700000000000	0
	2	0	0	2	46	0
	2	0	0	2	57.8800000000000	0
	2	0	0	2	54.0250000000000	0
	2	0	0	2	35.8500000000000	0
	2	0	0	2	38.0500000000000	0
	2	0	0	2	38.0500000000000	0
	2	0	0	2	32.9625000000000	0
	2	0	0	2	49.0250000000000	0
	2	0	0	2	47.5125000000000	0
	2	0	0	2	2	0
	2	0	0	2	53.9050000000000	0
	2	0	0	2	31.3033333333333	0
	2	0	0	2	38.0500000000000	0
	];										
